Version 4
SHEET 1 1040 692
WIRE -512 -160 -672 -160
WIRE -368 -160 -512 -160
WIRE -336 -160 -368 -160
WIRE 96 -160 -64 -160
WIRE 240 -160 96 -160
WIRE 272 -160 240 -160
WIRE 496 -160 272 -160
WIRE -512 -112 -512 -160
WIRE -336 -112 -336 -160
WIRE 96 -112 96 -160
WIRE 272 -112 272 -160
WIRE -672 -48 -672 -160
WIRE -64 -48 -64 -160
WIRE 496 -32 496 -160
WIRE -512 16 -512 -32
WIRE 96 16 96 -32
WIRE -336 32 -336 -32
WIRE 272 32 272 -32
WIRE -672 176 -672 32
WIRE -560 176 -672 176
WIRE -512 176 -512 96
WIRE -512 176 -560 176
WIRE -336 176 -336 112
WIRE -336 176 -512 176
WIRE -64 176 -64 32
WIRE 48 176 -64 176
WIRE 96 176 96 96
WIRE 96 176 48 176
WIRE 272 176 272 112
WIRE 272 176 96 176
WIRE 496 176 496 48
WIRE 496 176 272 176
WIRE -560 208 -560 176
WIRE 48 208 48 176
FLAG -560 208 0
FLAG -368 -160 vout
FLAG 48 208 0
FLAG 240 -160 vzout
SYMBOL res -528 -128 R0
SYMATTR InstName R1
SYMATTR Value 5
SYMBOL ind -352 -128 R0
SYMATTR InstName L1
SYMATTR Value 80m
SYMATTR SpiceLine Rser=0
SYMBOL current -672 32 R180
WINDOW 0 24 80 Left 2
WINDOW 3 24 0 Left 2
WINDOW 123 24 52 Left 2
SYMATTR InstName I1
SYMATTR Value 0
SYMATTR Value2 AC 2 45
SYMBOL h -336 16 R0
WINDOW 123 24 124 Left 2
SYMATTR Value2 2
SYMATTR InstName H1
SYMATTR Value V1
SYMBOL voltage -512 0 R0
WINDOW 123 0 0 Left 0
WINDOW 39 0 0 Left 0
SYMATTR InstName V1
SYMATTR Value 0
SYMBOL res 80 -128 R0
SYMATTR InstName R2
SYMATTR Value 5
SYMBOL ind 256 -128 R0
SYMATTR InstName L2
SYMATTR Value 80m
SYMATTR SpiceLine Rser=0
SYMBOL current -64 32 R180
WINDOW 0 24 80 Left 2
WINDOW 3 24 0 Left 2
WINDOW 123 24 52 Left 2
SYMATTR InstName I2
SYMATTR Value 0
SYMATTR Value2 AC 0 0
SYMBOL h 272 16 R0
WINDOW 123 24 124 Left 2
SYMATTR Value2 2
SYMATTR InstName H2
SYMATTR Value V2
SYMBOL voltage 96 0 R0
WINDOW 123 0 0 Left 0
WINDOW 39 0 0 Left 0
SYMATTR InstName V2
SYMATTR Value 0
SYMBOL current 496 48 R180
WINDOW 0 24 80 Left 2
WINDOW 3 24 0 Left 2
WINDOW 123 24 52 Left 2
SYMATTR InstName I3
SYMATTR Value 0
SYMATTR Value2 AC 1 0
TEXT -520 -240 Left 2 ;ckt1
TEXT 168 -240 Left 2 ;ckt2
TEXT -160 -112 Left 2 ;deactivated\ncurrent source
TEXT -392 360 Left 2 !.options plotwinsize=0 numdgt=15 measdgt=15\n.ac list {50/(2*pi)}
TEXT -528 -992 Left 2 ;Phasor-domain testbench schematic for checking your work on Problem 7a:\n \nuse the .ac results report to verify your phasor-domain work; the results\nlisted in the report are given in polar format, i.e., magnitude and phase\n \nV(vout) in the .ac results report, defined in ckt1 below, is the phasor \nThevenin voltage VTH\n \nV(vzout) in the .ac results report, defined in ckt2 below, is the Thevenin \nimpedance ZTH (why? since the test current source is 1 A, the output \nimpedence of ckt2, Zout, will be Zout = vzout/1 = vzout, and ZTH = Zout)\n \nthere is nothing to plot for this verification testbench\n \nthe inductor values are chosen to give the impedance listed in Problem 7 at \nan angular frequency of 50 rps; note that there is nothing particularly special \nabout 50 rps, but I needed to choose something for ac simulation purposes; \n50 rps angular frequency of operation in hertz is\n50/(2*pi) ~ 7.9578 Hz\n \nthe inductor series resistance (Rser) has been set to zero; do not change \nthis!
