Version 4
SHEET 1 992 680
WIRE 464 128 432 128
WIRE 560 128 544 128
WIRE 576 128 560 128
WIRE 672 128 656 128
WIRE 688 128 672 128
WIRE 800 128 768 128
WIRE 432 176 432 128
WIRE 560 176 560 128
WIRE 672 176 672 128
WIRE 800 176 800 128
WIRE 432 304 432 256
WIRE 464 304 432 304
WIRE 560 304 560 256
WIRE 560 304 544 304
WIRE 576 304 560 304
WIRE 672 304 672 256
WIRE 672 304 656 304
WIRE 688 304 672 304
WIRE 800 304 800 256
WIRE 800 304 768 304
FLAG 432 304 0
DATAFLAG 432 128 ""
SYMBOL current 432 256 R180
WINDOW 0 24 80 Left 2
WINDOW 3 24 0 Left 2
SYMATTR InstName I1
SYMATTR Value 1
SYMBOL res 560 112 R90
WINDOW 0 0 56 VBottom 2
WINDOW 3 32 56 VTop 2
SYMATTR InstName R1
SYMATTR Value 2k
SYMBOL res 672 112 R90
WINDOW 0 0 56 VBottom 2
WINDOW 3 32 56 VTop 2
SYMATTR InstName R2
SYMATTR Value 2k
SYMBOL res 784 112 R90
WINDOW 0 0 56 VBottom 2
WINDOW 3 32 56 VTop 2
SYMATTR InstName R3
SYMATTR Value 1k
SYMBOL res 560 288 R90
WINDOW 0 0 56 VBottom 2
WINDOW 3 32 56 VTop 2
SYMATTR InstName R4
SYMATTR Value 2k
SYMBOL res 672 288 R90
WINDOW 0 0 56 VBottom 2
WINDOW 3 32 56 VTop 2
SYMATTR InstName R5
SYMATTR Value 2k
SYMBOL res 784 288 R90
WINDOW 0 0 56 VBottom 2
WINDOW 3 32 56 VTop 2
SYMATTR InstName R6
SYMATTR Value 1k
SYMBOL res 576 272 R180
WINDOW 0 36 76 Left 2
WINDOW 3 36 40 Left 2
SYMATTR InstName R7
SYMATTR Value 2k
SYMBOL res 688 272 R180
WINDOW 0 36 76 Left 2
WINDOW 3 36 40 Left 2
SYMATTR InstName R8
SYMATTR Value 2k
SYMBOL res 816 272 R180
WINDOW 0 36 76 Left 2
WINDOW 3 36 40 Left 2
SYMATTR InstName R9
SYMATTR Value 1k
TEXT 952 344 Left 2 !.op
