Version 4
SHEET 1 880 736
WIRE 48 96 -16 96
WIRE 272 96 128 96
WIRE 272 192 272 96
WIRE 400 224 272 96
WIRE -16 320 -16 96
WIRE 272 368 272 272
WIRE 400 368 272 368
WIRE 624 368 480 224
WIRE 624 368 480 368
WIRE 272 448 272 368
WIRE 480 512 624 368
WIRE -16 640 -16 400
WIRE 48 640 -16 640
WIRE 272 640 400 512
WIRE 272 640 272 528
WIRE 272 640 128 640
FLAG -16 640 0
DATAFLAG -16 96 ""
SYMBOL res 144 80 R90
WINDOW 0 0 56 VBottom 2
WINDOW 3 32 56 VTop 2
SYMATTR InstName R1
SYMATTR Value 13
SYMBOL res 288 288 R180
WINDOW 0 36 76 Left 2
WINDOW 3 36 40 Left 2
SYMATTR InstName R2
SYMATTR Value 50
SYMBOL res 496 208 R90
WINDOW 0 0 56 VBottom 2
WINDOW 3 32 56 VTop 2
SYMATTR InstName R3
SYMATTR Value 25
SYMBOL res 496 352 R90
WINDOW 0 0 56 VBottom 2
WINDOW 3 32 56 VTop 2
SYMATTR InstName R4
SYMATTR Value 50
SYMBOL res 496 496 R90
WINDOW 0 0 56 VBottom 2
WINDOW 3 32 56 VTop 2
SYMATTR InstName R5
SYMATTR Value 30
SYMBOL res 256 432 R0
SYMATTR InstName R6
SYMATTR Value 20
SYMBOL res 144 624 R90
WINDOW 0 0 56 VBottom 2
WINDOW 3 32 56 VTop 2
SYMATTR InstName R7
SYMATTR Value 7
SYMBOL current -16 400 R180
WINDOW 0 24 80 Left 2
WINDOW 3 24 0 Left 2
SYMATTR InstName I1
SYMATTR Value 1
TEXT 680 648 Left 2 !.op
